Result_files/zbus_bus_voltage_730_bus.csv
Bus_Number,Real,Imaginary,Magnitude,Angle
1,1,0,1,0
2,0.998590563004701,1.83085002058224e-05,0.998590563172538,0.00105048037679637
3,0.991944757133671,0.000108745624707723,0.991944763094492,0.00628126240548847
4,0.988476391384227,0.000157408811601169,0.988476403917421,0.0091240019137452
5,0.984968434851234,0.000205117785445846,0.984968456208926,0.0119317359048185
6,0.976579626943811,-0.00173798621766928,0.976581173460663,-0.101967281773611
7,0.974687305832997,-0.00365080719978254,0.97469414307525,-0.214607151337546
8,0.972176475227054,-0.00321385969800022,0.972181787465213,-0.189409979094354
9,0.968847376439472,-0.00362984697849279,0.968854176139389,-0.214661198570474
10,0.965801741345359,-0.00398894549873012,0.965809978863296,-0.236641157749165
11,0.965365805461812,-0.00390931434341583,0.965373720946229,-0.232021879192024
12,0.964606839692314,-0.00377141295965965,0.964614212385919,-0.224013489686049
13,0.961461630151044,-0.00429910072895133,0.96147124164989,-0.256191904236729
14,0.960273201927079,-0.00483309221475741,0.960285364420203,-0.288369442315137
15,0.959443799500816,-0.00502355915648638,0.959456950856661,-0.299992670487855
16,0.958683384223044,-0.0051206540032736,0.958697059702788,-0.306033334323063
17,0.957559945102706,-0.00562539685621945,0.957576468776717,-0.336592807337908
18,0.957267806854248,-0.00567539062709534,0.95728463066024,-0.339687721451664
19,0.998320761355348,-5.66305708026414e-05,0.998320762961556,-0.0032501504732034
20,0.996494786450924,-0.000509006829927962,0.996494916450568,-0.0292665259851979
21,0.996129286380359,-0.000652392698116015,0.996129500015372,-0.0375245897835693
22,0.995798693799407,-0.000805988801816597,0.995799019978708,-0.0463745804068249
23,0.990174915125948,-9.78539281689679e-05,0.99017491996115,-0.00566224915311347
24,0.986850808669766,-0.000721141929981223,0.98685107215722,-0.0418689241577602
25,0.985195779727489,-0.0010187491801724,0.985196306450013,-0.0592471149418753
26,0.975771892574607,-0.00172924693548605,0.975773424844924,-0.101538533924028
27,0.974720991875764,-0.00171862199977072,0.974722507006405,-0.101023457936628
28,0.970544609603679,-0.00274944175540205,0.970548504022712,-0.162311949018809
29,0.967645797260671,-0.00345061447671499,0.967651949668116,-0.204315265753097
30,0.966270558056313,-0.00344107880152817,0.966276685214838,-0.204040635613198
31,0.964111064961329,-0.00411109157216255,0.96411983002881,-0.244314972841621
32,0.963662031351618,-0.00429821266100847,0.963671616942621,-0.255554129790744
33,0.963525150655593,-0.00437693998500337,0.963535092017678,-0.260271839486124
34,0.998579854671475,8.60122560553905e-06,0.998579854708519,0.000493514788546568
35,0.991337777071949,0.00146323691304015,0.9913388569567,0.0845698011315776
36,0.985296608380939,0.0026814901542047,0.985300257219305,0.155930394994914
37,0.98044442060677,0.0036447396956368,0.980451195127219,0.212992430419515
38,0.976767059201392,0.00435420687322716,0.976776764188435,0.255409948680219
39,0.97431426614449,0.00482709666402821,0.974326223641179,0.283861186185563
40,0.973093062739921,0.00506319012897311,0.973106235026187,0.298118256556204
41,0.990422167835338,0.00174239077161589,0.990423700476343,0.100796950762895
42,0.984384930507472,0.00295958583522875,0.984389379543744,0.172261136146479
43,0.97953237196297,0.00392250094102256,0.979540225686028,0.229437591035162
44,0.975832292508577,0.00463551609320919,0.975843302539909,0.272171265803339
45,0.973373283114775,0.00510926035981656,0.973386692339206,0.300744197146897
46,0.972173587059128,0.00534176460660832,0.972188262542047,0.314817735349309
47,0.990426126503742,0.00174172499840212,0.990427657967595,0.100758033273646
48,0.984402503494586,0.00298805854652913,0.984407038465433,0.173915260522001
49,0.979572471877833,0.00394749967434332,0.979580425699966,0.23089036610903
50,0.975837858592647,0.00463459710325652,0.97584886419619,0.272115756619423
51,0.973380413921532,0.00510808668277127,0.973393816887909,0.300672910117405
52,0.972153719412599,0.00534502964282121,0.972168413141279,0.315016594543288
53,0.991935633535111,0.000101058443082892,0.99193563868303,0.00583729634970767
54,0.986005192966291,0.00151759647914229,0.986006360859587,0.0881859499502204
55,0.981209217089501,0.00266151354126437,0.981212826738278,0.155413459620508
56,0.977604242064984,0.00348959608817876,0.977610470169131,0.204518628581553
57,0.975171939131337,0.00404331156647074,0.97518032139579,0.237561553182203
58,0.973923100123786,0.0043221355728621,0.973932690595524,0.254269049651516
59,0.985160462819705,0.001816869089749,0.985162138186616,0.105666860048304
60,0.980320508579832,0.00299941164953507,0.980325097104253,0.17530296549151
61,0.976703039232856,0.00379774482625271,0.976710422649653,0.222783839987991
62,0.974257256436133,0.00435356711679717,0.974266983565133,0.25603028325328
63,0.972978522310454,0.00463721723436172,0.972989572740177,0.273069711644127
64,0.985131589173392,0.00182169224939614,0.985133273496507,0.105950473661889
65,0.980298660254869,0.0030030583080902,0.980303260045937,0.175520007753256
66,0.97672805952737,0.00379359066400331,0.976735426611642,0.222534449762516
67,0.974292562093477,0.00434772631122551,0.974302262788478,0.255677528807857
68,0.972972727724639,0.00463820581570055,0.972983782932231,0.273129551505839
69,0.988469144335481,0.000151417340778503,0.988469155932814,0.00877677826724327
70,0.983805595349932,0.0013113989600867,0.983806469387687,0.0763744194210828
71,0.980287789422671,0.00217738679025507,0.980290207593864,0.127263513462036
72,0.977964384405346,0.00276647756125613,0.977968297320227,0.162078566566922
73,0.976814707785045,0.00306019122961897,0.976819501297729,0.179497162510147
74,0.982954370963339,0.00164379229397422,0.982955745417381,0.0958155086614479
75,0.979405988317691,0.0024832025189215,0.979409136289478,0.145268377813072
76,0.977046336934988,0.00307814675248288,0.977051185714192,0.180507543478823
77,0.975932074122788,0.00336579265474658,0.975937878075137,0.197600790433652
78,0.982924364633201,0.00161735166495746,0.982925695266936,0.0942771835682766
79,0.979358866111111,0.00249109135922969,0.979362034268534,0.145736888073065
80,0.977106740607058,0.00309974375229685,0.977111657361163,0.181762781290214
81,0.975958733843856,0.00339312513546021,0.975964632281461,0.199199986195756
82,0.984961181426642,0.000199006316868026,0.984961201530741,0.0115763160141108
83,0.98024636601686,0.00132517303188385,0.980247261752271,0.07745682945619
84,0.976699531238892,0.0021751369841173,0.976701953281128,0.127599081429981
85,0.974312204135335,0.00274977362310534,0.974316084431552,0.161703819623604
86,0.973095166298196,0.00304858743784379,0.973099941711169,0.179500040958722
87,0.979360901978491,0.00163236021219091,0.979362262354429,0.0954982621887955
88,0.975813049946608,0.00248224736872755,0.975816207079028,0.14574717071193
89,0.973429758764033,0.00305610404602465,0.973434556105003,0.179880763572419
90,0.972207600487846,0.00335561521059548,0.972213391493749,0.197757994961388
91,0.979362020922636,0.00163223509145969,0.979363381088482,0.0954908331413316
92,0.975829221291187,0.00247957176344697,0.975832371568956,0.145587658357199
93,0.973421195223751,0.00305746885569751,0.973425996892747,0.179962678235273
94,0.972140335252392,0.00339870487959458,0.972146276349137,0.200311256483208
95,0.976572154991678,-0.00174424483174122,0.976573712678732,-0.10233525553088
96,0.971730495359325,-0.000572921642332832,0.971730664253469,-0.0337809592788714
97,0.968114193543014,0.000334491290437129,0.968114251327736,0.0197961548246534
98,0.965689724843164,0.000919904104786834,0.965690162987708,0.0545792354031828
99,0.964479334421968,0.00118198921488959,0.964480058697715,0.0702171183163537
100,0.970781221124989,-0.000283493586011846,0.97078126251877,-0.0167318703558711
101,0.967192522861139,0.000682803031158395,0.967192763878263,0.0404487467594964
102,0.964808661050105,0.00126125145460919,0.96480948543872,0.0749001817734715
103,0.963568021879304,0.00149629330354381,0.963569183651098,0.0889726727635856
104,0.970818914187889,-0.000258082413705547,0.970818948492192,-0.0152315045653075
105,0.967236285032754,0.000675328470075891,0.967236520791324,0.0400041493806427
106,0.964736877794347,0.00127329750690328,0.964737718067934,0.0756211693858286
107,0.963552743310375,0.00146674296286774,0.963553859665286,0.087216934491911
108,0.974676255023626,-0.00366045932233822,0.974683128544519,-0.215176970971598
109,0.967352861081316,-0.00204828712185652,0.967355029615467,-0.121318741739165
110,0.961240273200587,-0.000701708963165674,0.961240529325625,-0.0418261240347476
111,0.956359829074048,0.000398757372837405,0.956359912205643,0.0238896621279442
112,0.952734626708961,0.00125216903586443,0.952735449564861,0.0753031932204524
113,0.950339067794301,0.00181953158545887,0.950340809642168,0.109699113384237
114,0.949129857103637,0.00208324604990846,0.949132143360278,0.125758360435583
115,0.966438567792901,-0.00173078592940905,0.966440117615948,-0.102610374090955
116,0.960295001440425,-0.000411464325153064,0.960295089591921,-0.0245499224440044
117,0.955414754746518,0.000688485154544141,0.955415002812473,0.0412881281021645
118,0.951819784586419,0.00160144618830537,0.95182113180998,0.096400623953153
119,0.949454211265117,0.00216371900084664,0.949456676720418,0.130571596521033
120,0.948181188548778,0.00237279415780534,0.9481841574662,0.143380620441862
121,0.966429162182807,-0.00176121583727853,0.966430766997092,-0.104415436252107
122,0.960311327685985,-0.000414246824074007,0.96031141703223,-0.0247155193734638
123,0.955394969118919,0.000691866129834908,0.955395219632421,0.0414917427654592
124,0.951785472164829,0.00154221657647377,0.951786721622022,0.0928385924973067
125,0.949429949579737,0.00213512554609243,0.949432350365248,0.128849396787324
126,0.948242712474491,0.00239509861824751,0.948245737274032,0.144719014137689
127,0.974676290037465,-0.00366078262886642,0.974683164772355,-0.215195968360121
128,0.967230617981235,-0.00216117286836874,0.967233032432478,-0.128021048741322
129,0.960991501543889,-0.000927072986611554,0.960991948719604,-0.0552734887562688
130,0.955983020061154,6.07017631260689e-05,0.955983021988335,0.00363809268414614
131,0.952227731949905,0.00080104347449316,0.952228068881142,0.0481989737627961
132,0.94971509773191,0.00129496241042229,0.949715980589764,0.0781243079537296
133,0.948471463936178,0.00154105207635806,0.94847271586627,0.0930926291886393
134,0.966317379919406,-0.00184365553726235,0.966319138690757,-0.10931558842064
135,0.96005788674321,-0.000638583317756472,0.960058099120305,-0.038110330725144
136,0.955026939404322,0.000352698736091614,0.955027004531488,0.0211597676098385
137,0.951287401927532,0.00109014274879864,0.951288026560435,0.0656589702592063
138,0.948752530018587,0.00158756565360211,0.948753858269559,0.0958740281335924
139,0.94752548307865,0.00183080787028875,0.947527251819644,0.110706714910777
140,0.966312450596736,-0.00187492296506519,0.966314269538846,-0.111170085758589
141,0.960053275789984,-0.000637764100737891,0.960053487623542,-0.0380616230823406
142,0.955032407227468,0.000351803771824817,0.955032472024164,0.021105954392827
143,0.951277573877617,0.00109180180622795,0.951278200419662,0.0657595740843614
144,0.948746489611746,0.00158858202990401,0.948747819572449,0.0959360183775968
145,0.947525382238995,0.00183079214779311,0.947527150949798,0.110705775974789
146,0.972165471758877,-0.00322357906968831,0.972170816236622,-0.189984939880955
147,0.964828806665578,-0.00165128804461662,0.964830219740204,-0.0980606535432008
148,0.95870998032573,-0.000324734075134445,0.958710035322663,-0.0194072155704566
149,0.953778895661334,0.000738244299904828,0.953779181369357,0.0443480919733893
150,0.950065533720204,0.00153605098400946,0.950066775450906,0.0926348327478334
151,0.947586217556673,0.00206794808583658,0.947588474029021,0.125038236393133
152,0.946334732341074,0.00231392013423386,0.946337561265238,0.140095876308224
153,0.96390538337846,-0.00136432405334195,0.963906348918865,-0.0810971276755309
154,0.957834590216042,-1.40632502854031e-05,0.957834590319283,-0.000841235945916408
155,0.952867608278202,0.00105478022980116,0.95286819207441,0.0634237435211889
156,0.949137381121772,0.0018552417806535,0.949139194304376,0.111993680520196
157,0.946689670415209,0.00241437568726225,0.946692749143468,0.14612310818066
158,0.945380949841533,0.00260445854314895,0.945384537385493,0.157845474827793
159,0.963900166040527,-0.00136339743117749,0.963901130275046,-0.0810424868276143
160,0.957782872349941,-3.76270384670838e-05,0.95778287308904,-0.00225089690040263
161,0.952841383621,0.00102672270811991,0.952841936787157,0.0617383503162387
162,0.949119657522764,0.00182561082732305,0.949121413282317,0.1102070382927
163,0.946621562801037,0.00236036488890724,0.946624505536533,0.142864552514577
164,0.945384241916461,0.00260394099043841,0.945387828022258,0.157813558707193
165,0.972165466317115,-0.00322358562498354,0.972170810816626,-0.189985327284621
166,0.964824454044639,-0.00165104796149822,0.96482586671477,-0.0980468387097839
167,0.958673543060138,-0.000342694248253184,0.958673604311095,-0.0204813550912286
168,0.953771521842778,0.000718418610035077,0.953771792413462,0.043157449715394
169,0.950061117993174,0.00149549873676917,0.950062295030653,0.0901896662121474
170,0.947584880909279,0.00200664850398339,0.947587005591609,0.121331946825648
171,0.946374427793305,0.00227075317458194,0.946377152038808,0.137476584022768
172,0.963938063212729,-0.00133827262002506,0.963938992200188,-0.0795459030272431
173,0.957721003689752,-5.12071795507881e-05,0.957721005058718,-0.00306347595482342
174,0.95285063871806,0.00103656415829692,0.952851202534094,0.0623295253457455
175,0.949140919289319,0.00181339547080043,0.949142651592745,0.109467180829754
176,0.946627036554363,0.00229802310596624,0.946629825880154,0.139090435266881
177,0.945433679903366,0.00255911977334654,0.945437143436641,0.155089042514567
178,0.963904779326498,-0.00136472630975746,0.963905745436952,-0.0811210891041
179,0.957726041087084,-5.20637490455315e-05,0.957726042502224,-0.0031147039497984
180,0.952887135287766,0.00103043189444369,0.952887692431177,0.0619584139902533
181,0.949107103327923,0.0017864041067098,0.949108784506367,0.107841669915897
182,0.946616419498665,0.00229976864044484,0.946619213094828,0.139197646479128
183,0.945477495184805,0.00258459034054456,0.945481027841469,0.156625356149289
184,0.968839966281572,-0.00363604478428256,0.968846789273799,-0.215029364409851
185,0.964042067757001,-0.00247166113332773,0.9640452362384,-0.146897574045607
186,0.960482441547446,-0.00157597929197963,0.96048373449615,-0.0940120059351003
187,0.958106942623978,-0.000985688673003158,0.958107449656054,-0.0589451745308636
188,0.956938254352834,-0.000681660665467722,0.956938497138198,-0.0408137854325823
189,0.963107282211198,-0.00218177331983273,0.963109753446127,-0.129794667275558
190,0.959583002621818,-0.00126027615965048,0.959583830218446,-0.0752498358703357
191,0.957149210426204,-0.000692598209758632,0.957149461010027,-0.0414595205837961
192,0.956049173489114,-0.000368075472063691,0.956049244342974,-0.0220586666819748
193,0.963096704661896,-0.00214779176946354,0.963099099542767,-0.127774499761452
194,0.959591631046428,-0.00122954676812016,0.959592418769343,-0.0734143563725816
195,0.957236166860433,-0.000642746535192875,0.957236382649951,-0.0384718625388381
196,0.956060843183739,-0.000337677209449272,0.956060902816918,-0.0202366599078073
197,0.965794106424994,-0.00399533274693958,0.965802370409709,-0.237021945771945
198,0.960850082460886,-0.0027960724666782,0.96085415073586,-0.166730171829058
199,0.957078973597447,-0.00192328943881128,0.957080906059989,-0.11513806314065
200,0.954550409610125,-0.00132013474477159,0.954551322477007,-0.0792395040419863
201,0.953277338665724,-0.00100773595518642,0.953277871318411,-0.0605689375438678
202,0.959963609387191,-0.00244922493258159,0.959966733824904,-0.146182569683586
203,0.956156386089113,-0.00160275031137715,0.956157729387549,-0.0960415511342142
204,0.953591127520757,-0.000993468663398206,0.953591645027522,-0.0596917685730588
205,0.952320148236471,-0.000681541180318506,0.95232039211366,-0.0410045157631255
206,0.959967062812418,-0.00244982130438434,0.959970188760633,-0.146217638112244
207,0.956114925063222,-0.00162795461562039,0.956116311002423,-0.0975560951209391
208,0.953606302702048,-0.000996065033183472,0.953606822909012,-0.059846816873073
209,0.952307279861194,-0.000646798164725806,0.952307499510789,-0.0389147495990913
210,0.965360252821219,-0.00391380671470164,0.965368186553735,-0.232289839270257
211,0.96182746423557,-0.00299520281929428,0.961832127867309,-0.178422775373388
212,0.959483715731157,-0.00236335222295316,0.959486626372143,-0.141127808434626
213,0.958316805620776,-0.00205804310782151,0.958319015504045,-0.123045951155646
214,0.96093394600679,-0.00267940860080457,0.960937681547888,-0.159759583055805
215,0.958578842266424,-0.00201348281669477,0.958580956911773,-0.120348888133705
216,0.957431395605396,-0.00171162039188481,0.957432925554194,-0.102428769893924
217,0.960920146560892,-0.00267702272215312,0.960923875505891,-0.159619618113408
218,0.95861301456778,-0.00201940056340722,0.958615141585695,-0.120698296934899
219,0.957438688049989,-0.00174519006522175,0.957440278588303,-0.104436885299097
220,0.964599449545271,-0.00377763515853377,0.964606846642937,-0.224384789661381
221,0.959797599221023,-0.00262888455781537,0.959801199470213,-0.156932683982246
222,0.956197305510706,-0.00172686560901772,0.956198864844948,-0.103474463947217
223,0.953793442304818,-0.00113232228564259,0.953794114438453,-0.0680202386168929
224,0.952577102159577,-0.000844406695516263,0.952577476419322,-0.0507895130626939
225,0.95892975589909,-0.002349804493591,0.958932634927942,-0.1403998675175
226,0.955297387894202,-0.00137778215748619,0.955298381450088,-0.0826350505902406
227,0.952878262042873,-0.000813263087451299,0.952878609094933,-0.048900822997843
228,0.951601830902971,-0.000482612579074066,0.951601953283403,-0.0290580163384869
229,0.95883881941995,-0.0023341496149583,0.958841660484706,-0.139477725352519
230,0.955288200033158,-0.00140862419222867,0.955289238578927,-0.0844856689710034
231,0.952913296410201,-0.000786786854202725,0.952913621221205,-0.0473070908424774
232,0.951709330366901,-0.000566089111496649,0.951709498725476,-0.0340802722606778
233,0.961454020483607,-0.00430525723418079,0.961463659606511,-0.256560808214652
234,0.95661252156016,-0.0030463157674724,0.956617372017382,-0.182456786428572
235,0.952986737156503,-0.00209770892744434,0.952989045886123,-0.126118936798386
236,0.950558630282077,-0.00145790394289906,0.950559748299729,-0.0878764073085771
237,0.949361436688492,-0.0011495392280337,0.949362132651011,-0.0693768583982847
238,0.955672384831982,-0.00268906998359198,0.955676168075685,-0.161218380588999
239,0.952068673990562,-0.00177700080095706,0.952070332342098,-0.106940319157545
240,0.949658562630667,-0.00110793562835121,0.949659208926602,-0.0668450843003142
241,0.948475375050707,-0.000802028358113506,0.948475714147214,-0.0484491534792124
242,0.955714144659128,-0.00272873680607486,0.955718040169843,-0.163589372848666
243,0.952094051320789,-0.00174883490703271,0.952095657475637,-0.105242487765408
244,0.949599933141373,-0.00109786254514951,0.949600567777983,-0.066241435051822
245,0.948437431405915,-0.000828223545623495,0.948437793029196,-0.0500335604901676
246,0.96026191577361,-0.00484257377884675,0.960274126177524,-0.288938551987133
247,0.952937177937433,-0.00308186463153665,0.952942161405909,-0.185297861064274
248,0.946815652661517,-0.00163153036554638,0.946817058367766,-0.0987306360074363
249,0.9418963676942,-0.000449697309115598,0.941896475045531,-0.0273551919263105
250,0.93818581903487,0.000422072497324644,0.938185913976181,0.0257763127763272
251,0.935715699797329,0.00100283459167059,0.935716237181136,0.061405582556737
252,0.93451143735526,0.00129116231603219,0.934512329318303,0.0791623316147919
253,0.952025215032327,-0.00276126354689765,0.952029219422242,-0.166180791461627
254,0.945899941503055,-0.00131066411962754,0.945900849548152,-0.0793905053365948
255,0.940985816570604,-0.000130031029430185,0.940985825554835,-0.00791747230773522
256,0.937271581384606,0.000742084990379146,0.937271875157541,0.0453639371434431
257,0.934724309360055,0.00133568524015018,0.934725263681095,0.0818734188927874
258,0.933583996538332,0.00157998986285644,0.933585333518287,0.0969668125442837
259,0.952030046674082,-0.00272956255019051,0.952033959626425,-0.164272111015126
260,0.94590713392803,-0.00134466928015361,0.945908089695512,-0.0814496687172643
261,0.940979197904298,-9.60676945096188e-05,0.940979202808233,-0.00584951658451998
262,0.937220098476524,0.000750796176950625,0.937220399203541,0.0458989762188335
263,0.934787874753687,0.00132497081031837,0.934788813761784,0.0812111352970507
264,0.933614654815448,0.00164116967624992,0.933616097292712,0.10071821235148
265,0.959436466090783,-0.00502968255157841,0.959449649628025,-0.300360631271784
266,0.954692461062372,-0.00387425557955118,0.954700322125024,-0.23251181295597
267,0.951128922139302,-0.00296653552669202,0.951133548384716,-0.178702813414766
268,0.948748170053631,-0.00236810189180548,0.94875112547321,-0.143011566575112
269,0.947583135782578,-0.0020810200426057,0.947585420879807,-0.125829037403945
270,0.95380128803234,-0.00358925313197061,0.953808041374257,-0.215608940694455
271,0.950217822343859,-0.00264585345508912,0.95022150598711,-0.15953799311558
272,0.947814542939539,-0.00204373271038507,0.947816746344502,-0.123544292658783
273,0.946694696514936,-0.00173183422203458,0.946696280577503,-0.104813813171695
274,0.953789915137831,-0.00358727573003014,0.953796661121119,-0.215492727358876
275,0.950252472135573,-0.00261924620515966,0.950256081932892,-0.157927895378819
276,0.947843439847531,-0.00201606635814628,0.947845583935253,-0.121868142444876
277,0.946708067567049,-0.00179953114576862,0.946709777866945,-0.108909408410728
278,0.95867569859768,-0.0051270019855302,0.958689408114594,-0.306415167528657
279,0.953732420659391,-0.00389497446767998,0.95374037402373,-0.233990533194509
280,0.949988967869758,-0.00297395550601671,0.949993622865754,-0.179364759054492
281,0.947450522317345,-0.00236405270860404,0.947453471672683,-0.142962570034727
282,0.946180621305693,-0.00206946831874628,0.946182884453925,-0.125316043002515
283,0.952826133836672,-0.00354212703805832,0.952832717734909,-0.212995831744962
284,0.949087990940081,-0.0026547845695669,0.949091703908421,-0.160267073331082
285,0.946493220263589,-0.00203541585000658,0.94649540882279,-0.123213305166487
286,0.945218841526412,-0.00174012175933941,0.945220443283084,-0.105479827140014
287,0.952824973859898,-0.00357447234870416,0.952831678558016,-0.214941069390967
288,0.949068181495495,-0.0026187873916584,0.949071794531145,-0.158097265404413
289,0.946488067096973,-0.00200174176180387,0.946490183851393,-0.121175519918619
290,0.945217246948222,-0.00173984762963389,0.945218848202971,-0.105463388351428
291,0.957552217504725,-0.00563153629183554,0.957568777398899,-0.336962868190726
292,0.952681927516265,-0.00431893117777619,0.952691717284571,-0.259745489145213
293,0.949018001847331,-0.00331865795080323,0.949023804401605,-0.200359022479924
294,0.946575466795098,-0.00265200148982432,0.946579181817485,-0.160524015667743
295,0.945372393037174,-0.00231998594534838,0.945375239707292,-0.140606111768965
296,0.951751664810494,-0.00399377428365888,0.951760044182658,-0.240425182500492
297,0.948108900082407,-0.00296492201864721,0.948113536016678,-0.179174527818828
298,0.945654204056128,-0.00229633580050846,0.945656992152619,-0.139131291905621
299,0.944462495295836,-0.00196640167512945,0.944464542349783,-0.119291506625322
300,0.951788512575214,-0.00396764587203298,0.951796782345845,-0.23884302372028
301,0.948083471049952,-0.00296051576851133,0.948088093339295,-0.178913052038135
302,0.945625199315732,-0.00229133090751473,0.945627975357246,-0.138832312873348
303,0.944466846560582,-0.00196708540498193,0.944468895028884,-0.119332435110756
304,0.957258300192488,-0.00568330566934578,0.957275171124135,-0.340164825461818
305,0.951117874398139,-0.00417847963424274,0.951127052865014,-0.251711921359674
306,0.946201617174498,-0.00296677324222854,0.946206268256085,-0.179647789043146
307,0.942495198843559,-0.00206743328511631,0.942497466375135,-0.125682350228336
308,0.940037944524907,-0.00148289113376858,0.940039114139793,-0.0903828759910475
309,0.938800285323205,-0.0012109335587369,0.938801066298401,-0.0739042635508277
310,0.950168389528997,-0.00384991039117768,0.950176189067137,-0.232150861085495
311,0.94528766009798,-0.00261199811453995,0.945291268799022,-0.158318037455561
312,0.941526819187426,-0.00170341432827875,0.941528360098391,-0.103659655037608
313,0.93909430927285,-0.00112326299657996,0.939094981047397,-0.0685321992260378
314,0.93784561417575,-0.000915478878734665,0.937846060998427,-0.0559293113191579
315,0.950212986114411,-0.00385761392383843,0.950220816529322,-0.232604464259469
316,0.945286506761576,-0.00264450110218933,0.945290205837119,-0.160288289011215
317,0.941573832735335,-0.00174438855813223,0.941575448587818,-0.106147796796162
318,0.93913739741898,-0.00116358493979297,0.939138118255673,-0.0709890504030661
319,0.93787627657025,-0.000887672803493521,0.937876696648489,-0.0542287840223742
320,0.998311648268854,-6.42621861921954e-05,0.99831165033716,-0.00368817898939267
321,0.992407242569395,0.00136482646212716,0.992408181070401,0.0787970335086113
322,0.987698487067009,0.00251839225935426,0.987701697707374,0.146090063732735
323,0.984133333342602,0.00336056426675418,0.984139071060697,0.195649709602937
324,0.981753323519599,0.00390876162635833,0.981761104678337,0.228116733202168
325,0.980554932976823,0.00420334734421932,0.980563942185351,0.245608460468453
326,0.991473521734512,0.00167824080003032,0.991474942090227,0.0969829459960373
327,0.986832704557418,0.00285133887409149,0.986836823855638,0.165549062229064
328,0.983262811847093,0.00366274329075567,0.983269633849162,0.213430996054546
329,0.980883188770104,0.00421070412314331,0.980892226516767,0.245955987289508
330,0.979639636671887,0.00454430975764987,0.97965017658846,0.265779264782661
331,0.991528081002068,0.00166899681277123,0.99152948567655,0.0964434441246575
332,0.986837900874428,0.00285047061989821,0.986842017642643,0.165497780122639
333,0.983210214974848,0.00370295455394779,0.983217187961701,0.215785659389137
334,0.9808288857535,0.0041881533050597,0.980837827449858,0.244652307262908
335,0.979656116980589,0.00451000538236232,0.979666498195194,0.263768524506277
336,0.996485681532393,-0.000516614700369563,0.996485815448382,-0.0297042294357495
337,0.990593517372064,0.000916326028282474,0.990593941185261,0.0530001440379689
338,0.985850736094614,0.00207588285469958,0.985852921661197,0.120646205552538
339,0.982287355136351,0.00296053398933417,0.982291816530236,0.172684284490257
340,0.979925979081689,0.00356919463392645,0.979932479117587,0.208688093621622
341,0.978779279781558,0.00388136300730223,0.978786975551115,0.227206028966067
342,0.989694950236495,0.00125578517153493,0.989695746944492,0.0727003322315769
343,0.98493261375488,0.00238700055196905,0.98493550621838,0.138857001640603
344,0.981366843792405,0.00327173768886028,0.981372297531661,0.191015284379215
345,0.978992993821106,0.00388217340936158,0.979000691123961,0.227203858652615
346,0.977908612417883,0.00421555812816253,0.977917698567421,0.24698851186379
347,0.989750706644486,0.0011837874904441,0.989751414576449,0.0685283619857168
348,0.984981110936404,0.00237881263037,0.984983983448992,0.138373880952827
349,0.981385190690061,0.00326864963426808,0.981390634037334,0.190831426864273
350,0.979019865347009,0.00390938146604944,0.979027670705748,0.22878991112947
351,0.977918891531366,0.00421388722004699,0.977927970384035,0.246888019893506
352,0.996119984706318,-0.000660229916213549,0.996120203507016,-0.0379757285755637
353,0.99007379426597,0.00078395714351534,0.990074104641171,0.0453677559343051
354,0.985227451174283,0.00193138015454176,0.985229344252736,0.112319028064224
355,0.981568084196077,0.00278320183375559,0.981572030023678,0.16245973541325
356,0.979092406537969,0.00337985366641309,0.979098240194067,0.197785806482349
357,0.977856922020508,0.00365795624138875,0.977863763817479,0.214330411691359
358,0.98917845797534,0.00112309642828366,0.989179095547444,0.0650526274177939
359,0.984315032780657,0.00224171891266914,0.984317585468059,0.130487502690312
360,0.980705407385471,0.0030534610421302,0.980710160903536,0.178391863630299
361,0.978149300786992,0.00372646765555217,0.978156399146511,0.218279393578474
362,0.976927065030687,0.00397071644697228,0.976935134478525,0.232877201794251
363,0.989153101829413,0.00109605202569379,0.989153709081046,0.0634877749266892
364,0.98434364279952,0.00226842740222973,0.98434625660014,0.132038325384748
365,0.980633221418615,0.00309702490458015,0.98063811190118,0.180950290330352
366,0.978160291878407,0.00372470492863259,0.978167383444396,0.21817369060297
367,0.97691245118892,0.0039731083145857,0.9769205304822,0.23302096579987
368,0.995789494306261,-0.000813760746701737,0.995789826809489,-0.0468221910423816
369,0.989801163444061,0.000608239749178278,0.989801350327837,0.0352086534755455
370,0.984979092874983,0.00173538833536778,0.984980621623338,0.100946634573997
371,0.981346714747719,0.00258637927938695,0.981350122995823,0.151005013410299
372,0.978923366380629,0.00314031356960524,0.978928403314205,0.183799981564634
373,0.977715073904465,0.00341700490649674,0.977721044911351,0.200241530326806
374,0.988875963574196,0.000952617203839327,0.988876422418055,0.0551949186734909
375,0.984040316430576,0.00201896230594702,0.984042387587842,0.117553981153118
376,0.980445234532768,0.00292645636550928,0.980449602001487,0.171017304001725
377,0.978016395895009,0.00344955344293691,0.978022479321625,0.202086626286362
378,0.976823668561825,0.00372361110805415,0.976830765661211,0.218408065375876
379,0.988962185185438,0.000906796952426086,0.988962600914447,0.0525355008182074
380,0.984114338876255,0.00206943925035828,0.984116514728139,0.120483927070438
381,0.980417954202254,0.00289944798576657,0.980422241547363,0.169443702536322
382,0.977987594240603,0.00345440908731493,0.977993694985129,0.202377043921719
383,0.976774151325194,0.00373180417678983,0.976781280051715,0.218899720771707
384,0.99016589882112,-0.000105524185776652,0.990165904444094,-0.00610613884588959
385,0.984274994177069,0.00127204473024287,0.984275816151177,0.0740471456141714
386,0.97955800277951,0.00237377297328803,0.979560878969506,0.138845179433634
387,0.975979800689157,0.00320231475138516,0.975985054277479,0.187994117673626
388,0.973597684227649,0.00375429617884845,0.973604922683344,0.220937522151877
389,0.972435326035766,0.00400834248064489,0.97244358712047,0.236169748420893
390,0.983362450326861,0.00161467807970409,0.983363775974155,0.0940794069007937
391,0.978688020932001,0.00267750968641467,0.978691683511165,0.156750280595757
392,0.975059123776947,0.00351430406035151,0.975065456876458,0.206504317327072
393,0.972664759364578,0.00406808004324411,0.972673266510903,0.239632880593546
394,0.971559475488995,0.00431267456333835,0.971569047250034,0.254329697980473
395,0.983408459252213,0.00154403988495584,0.983409671392334,0.0899594621948438
396,0.97870302515947,0.00267496906215663,0.978706680735235,0.156599143979037
397,0.975087083712989,0.0035095902666239,0.975093399653459,0.20622141871756
398,0.972683848490813,0.00409672483674406,0.972692475692748,0.241315464853552
399,0.971546581711826,0.00428296274010197,0.971556022165355,0.252580888850099
400,0.986839992813332,-0.000730323546765772,0.986840263055931,-0.0424024660270507
401,0.979781362253978,0.00092812453154256,0.979781801849477,0.0542749685415425
402,0.973858696279362,0.00229186892289251,0.973861393105866,0.134839042415129
403,0.969085961438187,0.00336030235603889,0.96909178733931,0.198672129120381
404,0.965513439724634,0.00417093177922568,0.965522448708885,0.247511107775078
405,0.963146203627867,0.00472380700446426,0.96315778765236,0.281008255479668
406,0.961969784220784,0.00499976227526811,0.961982777068587,0.297787625178473
407,0.97891268999123,0.00126461913390247,0.978913506846963,0.0740181422682907
408,0.972985088918249,0.00262900898082324,0.972988640707318,0.154813012083497
409,0.968190973296621,0.00366893852458539,0.968197924952824,0.217120064450523
410,0.964630611767115,0.00447737410661555,0.964641002672543,0.265938893345248
411,0.96227305623548,0.00502843875136705,0.962286194410502,0.299401187363103
412,0.961072970028143,0.00530824170332166,0.961087629276694,0.31645542331976
413,0.978932876112458,0.00122952643500453,0.978933648246429,0.0719626852885582
414,0.97299355432162,0.00259578486312537,0.972997016876452,0.152855241100058
415,0.968158169831537,0.00364246116421468,0.968165021747266,0.215560508174056
416,0.964565603455531,0.00445601209485362,0.964575896139501,0.264687927236446
417,0.962214195822908,0.00503816228387239,0.962227385664284,0.299998481281284
418,0.96108364625319,0.00530648703202958,0.961098295649278,0.316347305077706
419,0.986839915713303,-0.000730715428213051,0.986840186246018,-0.0424252219062638
420,0.979596774110265,0.000840437642481247,0.979597134633758,0.0491564685756839
421,0.973583769811268,0.00215058356523256,0.973586145058356,0.126562464563793
422,0.968718848522315,0.00318545142599874,0.968724085889882,0.188405815576427
423,0.96503905612309,0.00396319964672829,0.96504719407622,0.235299633847224
424,0.962589631965792,0.00448128291898514,0.962600063091957,0.266735413135232
425,0.961355347360268,0.00474085971796792,0.961367036905805,0.282548021337354
426,0.978655340584046,0.00112607414179705,0.978655988433447,0.0659264447805279
427,0.972724318305546,0.00245372395179768,0.972727413093834,0.144529879318923
428,0.967859634933525,0.00348833569084631,0.967865921199599,0.206503133279066
429,0.96409394273463,0.00424810460290957,0.964103301939331,0.252461797197042
430,0.961695443957738,0.00478973974745029,0.961707371571997,0.285360199124575
431,0.960437302155394,0.00505318921297714,0.960450595341974,0.301449915418182
432,0.978669469901124,0.00115531898869488,0.97867015182773,0.0676376175308367
433,0.97270416250651,0.00245709874730865,0.972707265877944,0.144731660515904
434,0.967778596592171,0.0034699055469408,0.967784817129519,0.205429311960938
435,0.964114860165468,0.00427676501589102,0.96412434587603,0.254159528339199
436,0.961637973921361,0.00476708070826917,0.961649789656328,0.284027227774957
437,0.960397987890919,0.00502748520455671,0.960411146724364,0.299928838123582
438,0.986839900896135,-0.000730552269252175,0.986840171308055,-0.0424157495631881
439,0.979659334047614,0.000896233466128732,0.979659744003519,0.0524165686552906
440,0.973662110874867,0.00224517303903023,0.973664699450112,0.132118432028155
441,0.968866793536162,0.00333564187504184,0.968872535540028,0.197258743487981
442,0.965302399844342,0.00416628430283015,0.965311390728472,0.247289372334855
443,0.962924392629812,0.00471996347787763,0.962935960475423,0.280844293660784
444,0.961754833787188,0.00499554864779912,0.961767807643463,0.297603162237114
445,0.978761959340601,0.00120599824154131,0.978762702335971,0.0705979362109411
446,0.972714105684523,0.00253121460067842,0.972717399065626,0.149095798508942
447,0.967944903352792,0.00364883929888625,0.967951780800508,0.215985538988395
448,0.964369317658325,0.00448106996895393,0.964379728545167,0.266230524370816
449,0.962015384322654,0.0050305717714156,0.962028537168109,0.299608414379415
450,0.960889854831892,0.00529883461390332,0.960904464953265,0.315954821214803
451,0.978763304662045,0.00120570795232628,0.978764047298752,0.0705808459723154
452,0.972784813689414,0.00255123038525927,0.972788159118535,0.150263857383993
453,0.967918537563314,0.00362125363553706,0.967925311600331,0.214358516509952
454,0.964437212948801,0.00446984981287451,0.96444757103629,0.265545223891654
455,0.96200105354613,0.005032963463711,0.962014219097146,0.2997553203188
456,0.960847454947157,0.00530580338724016,0.960862104168966,0.316384301790642
457,0.986839907577507,-0.000730363936910924,0.986840177850022,-0.0424048147340432
458,0.979738791924845,0.000950860139142096,0.979739253341091,0.0556069191337615
459,0.973820236050699,0.00233435161666904,0.973823033892354,0.137343869438896
460,0.969092281008524,0.00344009461087679,0.969098386832439,0.203388344216005
461,0.96555979020409,0.00426817524515876,0.965569223711531,0.253269489303782
462,0.963223313274422,0.0048189372364222,0.963235367597891,0.286644289071944
463,0.962052258846528,0.00509443066582667,0.9620657472208,0.303399992300517
464,0.978857185384335,0.00125789906617701,0.978857993627576,0.0736289920001654
465,0.972924043592278,0.00264342659931017,0.972927634669781,0.155671777159134
466,0.968182102877563,0.0037512059688996,0.968189369843855,0.221990464395998
467,0.964637675639139,0.0045809399781228,0.964648552724548,0.272088226035866
468,0.96234099748937,0.00512503825601724,0.962354644331268,0.30513122336942
469,0.961165010836626,0.00540126433246367,0.961180186912403,0.321970098060467
470,0.978831367628747,0.00129381577242712,0.978832222708885,0.0757333106672742
471,0.972911739985381,0.00264551594488127,0.972915336787327,0.155796788615642
472,0.968190205039833,0.00374986066363666,0.968197466733967,0.221908995133627
473,0.964668742643133,0.00457584142708385,0.964679595180415,0.271776645799295
474,0.962339643937628,0.0051252288467918,0.962353291813735,0.305142999607093
475,0.961164812153359,0.00540123260231404,0.961179988053968,0.321968273214714
476,0.985184895643617,-0.00102787830432101,0.985185431854396,-0.0597786949249388
477,0.978127128039145,0.000674556532558659,0.978127360640025,0.0395135101802351
478,0.972219748857209,0.00210074500995179,0.972222018469841,0.123802911555541
479,0.967494057293264,0.0032289457441832,0.967499445471883,0.191220065010933
480,0.963974699593253,0.0040782890816392,0.963983326566251,0.242399886628806
481,0.961615280033573,0.00463158500106061,0.961626433899188,0.275960902979667
482,0.960447002245237,0.00490746973028648,0.960459539689734,0.292754161397087
483,0.977255163008901,0.000980456987617619,0.977255654843429,0.0574834809400216
484,0.971328370417933,0.00244139389815612,0.971331438584648,0.144010281371836
485,0.966615325021943,0.00353523289751375,0.966621789760047,0.209548738015789
486,0.963107247661589,0.00441465189161632,0.963117365459478,0.262628228106744
487,0.960702644217024,0.0049431236400329,0.960715361112178,0.294802584936619
488,0.959561055487874,0.00521450030195646,0.95957522384772,0.311356861473819
489,0.977256608079764,0.000980181094508986,0.977257099636806,0.0574672205613954
490,0.97132349124478,0.00241034845758328,0.971326481891457,0.142179728532611
491,0.966543846738545,0.00354711668979712,0.966550355493678,0.210268684716363
492,0.963087980179843,0.00438571397904623,0.963097965969192,0.260911951329061
493,0.960722333825336,0.00493984777157878,0.960735033610624,0.294601181357871
494,0.959562627972077,0.00521424171459564,0.959576794903533,0.311340911372622
495,0.985184923668097,-0.0010279659317674,0.98518545997029,-0.0597837894021233
496,0.97809964218588,0.000636341084233084,0.978099849184183,0.0372760112986099
497,0.97216590982308,0.00202425416082393,0.97216801728253,0.119301706930305
498,0.967419409867799,0.00313395252481309,0.967424486069786,0.185608871301633
499,0.9638480266952,0.00396658648913812,0.963856188636358,0.235791717776039
500,0.961459064704931,0.00452201664520438,0.961469698814175,0.269476431958608
501,0.960273828046857,0.00479909048078825,0.960285820004235,0.286340554986944
502,0.977229418203649,0.000941956077261897,0.977229872181511,0.0552276568773977
503,0.97128754005207,0.00233091180545056,0.971290336928277,0.137499089593777
504,0.966519102068589,0.0034439325688927,0.966525237815863,0.204157336981589
505,0.962946085984978,0.00427662714185667,0.962955582596362,0.254459806568968
506,0.960572604634992,0.00482934313387528,0.96058474448138,0.288055943667464
507,0.959379576729571,0.00510762159368976,0.959393172815064,0.305032963940123
508,0.977225602266866,0.000942664475658219,0.977226056929589,0.0552694066490017
509,0.971244895559343,0.0023380252130648,0.971247709655974,0.137924759203941
510,0.966538964246062,0.00344069219427776,0.966545088326782,0.203961056835083
511,0.962957893819891,0.00427464124726562,0.962967381497335,0.2543385284569
512,0.960520552961229,0.00483795620365424,0.96053273680868,0.288585316609794
513,0.959371613274301,0.00510889977867082,0.959385216278364,0.305111829728974
514,0.985184766748242,-0.00102815194251814,0.985185303244625,-0.0597946168133596
515,0.977975370221124,0.000644183937714292,0.977975582380302,0.0377402301193378
516,0.971924397393182,0.00203969841778869,0.971926537665134,0.12024180025267
517,0.967107413395056,0.00315394464351861,0.96711255622626,0.186853160003263
518,0.963503031499677,0.00398874338509593,0.96351128783365,0.237193707221041
519,0.961128635637568,0.0045433374862502,0.961139373950546,0.270840046071081
520,0.959937328493253,0.00482084595410957,0.959949433663293,0.287739414403262
521,0.977095157180857,0.000951500004482623,0.977095620468407,0.0557948904261367
522,0.971008937072931,0.00235262632042045,0.971011787120067,0.13881982958448
523,0.966176618073141,0.00346905875635079,0.96618284588369,0.205719707744672
524,0.962568999887149,0.00430409482693505,0.962578622646496,0.256194438741855
525,0.960237363920358,0.00485145788026135,0.960249619480415,0.289476025764509
526,0.95904369962103,0.00512930802110145,0.959057416208001,0.306435357830258
527,0.977100712335385,0.000950561027461671,0.977101174706377,0.0557395130041856
528,0.970968354799181,0.00235936109961445,0.970971221306907,0.139223041236281
529,0.966199626202996,0.00346519970114568,0.966205840017425,0.205485969386679
530,0.962571606952149,0.00430369569343008,0.962581227900827,0.256169987454702
531,0.960226778463995,0.00485323493997863,0.960239043139116,0.289585249551859
532,0.959025133987317,0.00513236259462603,0.959038867181718,0.30662377647914
533,0.985184781923398,-0.00102813359975816,0.985185318400631,-0.0597935491263651
534,0.977987533779208,0.000643533425704026,0.977987745507482,0.0377016502493481
535,0.971971260169047,0.00203681922424233,0.971973394300048,0.120066280905394
536,0.967182532135371,0.0031492765605884,0.967187659356054,0.186562113922975
537,0.963554626315029,0.00400585999401423,0.963562953214468,0.238198792683425
538,0.961145775583663,0.00456257794573683,0.961156604846386,0.271982151983894
539,0.959934944462695,0.0048412777505638,0.959947152488539,0.288959613782157
540,0.977087158306975,0.000954319456281102,0.977087624348003,0.0559606779196872
541,0.97103607822198,0.00235298266510494,0.97103892905287,0.138836975406392
542,0.966326454009826,0.00341989916180229,0.96633250562603,0.202773058161524
543,0.962651143741015,0.00431616449063063,0.962660819718864,0.256890934469673
544,0.960226743219353,0.00487531635266751,0.960239119752566,0.290902802413116
545,0.959037530870084,0.00515034270984081,0.959051360276088,0.30769396817761
546,0.977098268883584,0.00095244151838191,0.97709873308696,0.0558499218454787
547,0.971044874504917,0.00235154089993692,0.971047721817457,0.138750647965533
548,0.966276690505393,0.00346020044189555,0.966282885909273,0.205173151870242
549,0.962612746541194,0.00435465388487717,0.962622596251531,0.259192066345408
550,0.960248642323754,0.00487167495935248,0.960261000093996,0.290678900512664
551,0.95899640686776,0.0051571399050597,0.959010273395063,0.308113253080532
552,0.975764434860517,-0.0017354819766659,0.975765978212171,-0.101905423359271
553,0.972144963484758,-0.000846427963701886,0.972145331968981,-0.0498863230780386
554,0.969730425134551,-0.000280682011642699,0.96973046575532,-0.0165838812379606
555,0.968525220398202,2.01085162657964e-06,0.968525220400289,0.000118957471631451
556,0.968525220398202,2.01085162660191e-06,0.968525220400289,0.000118957471632769
557,0.974846069238373,-0.00141892638766545,0.974847101889112,-0.0833961777203895
558,0.9711894753389,-0.000492014429688606,0.97118959996864,-0.0290266200209142
559,0.968825677901628,3.30663056342845e-05,0.968825678465909,0.00195552182339131
560,0.967626945096389,0.000314548296337236,0.967626996221788,0.0186252452865947
561,0.97485174824318,-0.00141996399443224,0.974852782398722,-0.0834566758996977
562,0.971280738441905,-0.000507582618555837,0.971280871070962,-0.0299422587094905
563,0.968802237387659,3.70189169935382e-05,0.968802238094924,0.00218932989932171
564,0.967596914882404,0.000319708032404378,0.967596967700484,0.0189313545597828
565,0.974713634331114,-0.00172486269319864,0.974715160496788,-0.101391060840111
566,0.96991408034327,-0.000595130436702869,0.969914262926558,-0.0351561635145029
567,0.966317160789559,0.000251597047700506,0.966317193543336,0.0149179267743382
568,0.963932329445898,0.00081503072664417,0.963932674011044,0.0484451120222349
569,0.962766474309985,0.00109495853279392,0.962767096960354,0.065162713176977
570,0.969025573190547,-0.000283835959801342,0.969025614759549,-0.0167824281995271
571,0.96542049590298,0.000563981046468468,0.965420660636687,0.0334711456295602
572,0.963038368295309,0.00112683095746345,0.963039027535695,0.0670405570005798
573,0.961866535094284,0.0014076522255025,0.961867565114383,0.0838499636100646
574,0.968980047350303,-0.000276113867628602,0.968980086690053,-0.0163266095057618
575,0.965376651555087,0.000571473240362291,0.96537682070235,0.033917332576873
576,0.96297845443188,0.00113691312536909,0.96297912556372,0.0676446011759184
577,0.961900496040217,0.0014019610155113,0.961901517712237,0.0835080059557299
578,0.970537134069589,-0.00275567344111507,0.970541046192342,-0.162681084591391
579,0.965705456928052,-0.00157470123157397,0.965706740798979,-0.0934277154073094
580,0.962096696153504,-0.000680194818938413,0.962096936599675,-0.0405076600245842
581,0.95969964550376,-7.10169604680416e-05,0.959699648131358,-0.004239839120815
582,0.958490947227227,0.000254633330712592,0.958490981050255,0.0152212338282137
583,0.964795694099199,-0.00125817485552263,0.964796514481848,-0.0747184804893573
584,0.961172240813982,-0.000361453482630323,0.961172308777147,-0.0215463547420444
585,0.958798032773019,0.000243693480308716,0.958798063742268,0.0145626160449029
586,0.957558256406642,0.000606752332217632,0.957558448639518,0.0363051991463638
587,0.964761735049799,-0.00125232348952757,0.964762547848133,-0.0743736071070719
588,0.961184887382456,-0.000363576404134236,0.961184956145396,-0.0216726175862464
589,0.958800978275394,0.000243128849787758,0.958801009101206,0.0145288302658909
590,0.957598449885271,0.000600007782172011,0.957598637860358,0.0359001302672254
591,0.967634488384956,-0.00346018390921859,0.967640675036297,-0.204884273644142
592,0.960266728931871,-0.00171681402787849,0.960268263634658,-0.10243621926755
593,0.954081873480129,-0.000238097702906451,0.95408190318959,-0.0142985561137819
594,0.94911751107861,0.000932935184254718,0.949117969592881,0.0563188759850932
595,0.945401891475545,0.00181549415925158,0.945403634658012,0.110027308098896
596,0.942936556218276,0.00240981562142781,0.942939635535653,0.146427628671219
597,0.941683150587338,0.00267703003285953,0.941686955728862,0.162880804681843
598,0.959347767941191,-0.00139765050621898,0.959348786042221,-0.0834727731286813
599,0.953199340107848,0.00010696930820992,0.953199346109968,0.00642980918497146
600,0.948146224643199,0.00126015344085302,0.948147062059386,0.0761501014403695
601,0.944421143948104,0.00214401010369084,0.944423577594063,0.130071758695454
602,0.941992536334385,0.0027647832417931,0.941996593696634,0.16816476781173
603,0.940748790284028,0.00299746908159621,0.940753565627979,0.182558562055709
604,0.959390874863628,-0.00143729357507081,0.959391951490327,-0.0858365409982248
605,0.953118052360721,8.83016215688469e-05,0.953118056451073,0.00530816745423123
606,0.948195528155225,0.00125183795986919,0.948196354513054,0.0756436704587986
607,0.944486938408776,0.00213297681231262,0.944489346903852,0.129393384294412
608,0.942050601482785,0.00275511633560093,0.94205463027369,0.167566463827864
609,0.940713627147904,0.00297044021457179,0.940718316934901,0.18091916288995
610,0.96625947499752,-0.00345098928253452,0.966265637570493,-0.204630625054436
611,0.958820079026766,-0.00190400717537248,0.958821969496016,-0.113776749468901
612,0.952601318040727,-0.00062481248628064,0.95260152294838,-0.0375803734881617
613,0.947590645704891,0.000387902026198284,0.947590725099921,0.0234543764494017
614,0.943841340571149,0.00115165257783819,0.943842043180322,0.0699109019624707
615,0.941362565877602,0.00166622190378565,0.941364040491826,0.101414042348762
616,0.940145414626608,0.00193241356417654,0.940147400605682,0.117767936593116
617,0.957884527451446,-0.00161382489150751,0.957885886920598,-0.0965307038788346
618,0.951663808099461,-0.000334828295409251,0.951663867001556,-0.0201586392522704
619,0.946628207089226,0.000681773986112713,0.946628452600454,0.0412651608514209
620,0.942870993266951,0.00144655460853565,0.942872102919819,0.0879032332822845
621,0.940413013315466,0.00195745093250714,0.940415050510799,0.119259850170309
622,0.939183846365265,0.00222550808390148,0.939186483164917,0.135768925657815
623,0.95790272413347,-0.00158465123195205,0.957904034870848,-0.0947838882582491
624,0.95170519602929,-0.000309279466679973,0.951705246283185,-0.0186196393388902
625,0.946633941447141,0.0006808034717657,0.946634186258407,0.0412061697526301
626,0.942878350784561,0.00144531554680745,0.94287945852863,0.0878272536088319
627,0.940392484629257,0.00196089654573749,0.94039452904749,0.119472385343974
628,0.939259232719238,0.00224582649971196,0.939261917669933,0.13699746592713
629,0.966259199161621,-0.00345057987807838,0.966265360274263,-0.204606407531531
630,0.958904352789319,-0.0016658919244751,0.958905799854296,-0.0995391042843227
631,0.952739700615716,-0.000187473369385412,0.952739719060557,-0.0112742574821904
632,0.947777879191288,0.00100483507098934,0.94777841185472,0.0607450209245674
633,0.944079395430417,0.00190752337588834,0.94408132251501,0.115766629969793
634,0.941610900500169,0.00250240265244376,0.941614225657075,0.152267537481722
635,0.940352336016438,0.00281175555129654,0.940356539734186,0.1713200890992
636,0.957996473533919,-0.00131609020429954,0.957997377552179,-0.0787125723420566
637,0.951816119597343,0.000132199894790805,0.951816128778115,0.00795794042454784
638,0.94683768350031,0.00132696331315036,0.946838613348583,0.0802981851698095
639,0.943105671867368,0.00223492211749228,0.943108319963974,0.135776264519878
640,0.940695667816417,0.00281981126305075,0.94069989411296,0.171748213601791
641,0.939402029622677,0.0031678754631287,0.939407371002674,0.193213555345784
642,0.958012701270219,-0.0013512315229178,0.958013654193765,-0.0808129286454635
643,0.951840929474225,0.0001280175513693,0.951840938083066,0.0077059780954002
644,0.946802324490503,0.00133292395453261,0.946803262746221,0.0806618916925287
645,0.943192039363038,0.00225329298710924,0.943194730926277,0.13687979453394
646,0.940692663957,0.00282037853518566,0.940696891967651,0.171783313175459
647,0.939397435453629,0.00313573633321319,0.939402669029211,0.191254290764007
648,0.964101770985336,-0.00411881027796965,0.964110569081766,-0.244776036033247
649,0.958106637773643,-0.00264180290851002,0.958110279909637,-0.157982177975232
650,0.953301803886481,-0.00145199603382057,0.953302909670217,-0.0872684599306603
651,0.94969562916809,-0.000549515644710086,0.949695788149246,-0.0331526467402133
652,0.947318311279038,6.39256645366203e-05,0.947318313435911,0.00386635699041091
653,0.946128504047254,0.000370689988609239,0.946128576664801,0.0224482939446893
654,0.957208583706822,-0.00232493901493308,0.957211407194588,-0.139163953914124
655,0.952393222013385,-0.00113365738985312,0.95239389672347,-0.0682005621984752
656,0.948737624827998,-0.00022302184298744,0.948737651041116,-0.0134686448314476
657,0.946433813641888,0.000410417946973439,0.946433902630088,0.0248461269927658
658,0.945245650517475,0.000716844682259601,0.945245922333708,0.0434513155004079
659,0.957201971551928,-0.00232379823540033,0.957204792289057,-0.139096631343668
660,0.952394704280177,-0.00113394374773308,0.952395379330113,-0.0682176832337911
661,0.948791332822435,-0.000232166764843146,0.948791361227736,-0.0140201275486469
662,0.946407509836004,0.000382102521794647,0.946407586971028,0.0231325939651272
663,0.94521250623138,0.000689704525819807,0.945212757863826,0.0418076899814376
664,0.964101512725586,-0.00411899162472094,0.964110311599128,-0.244786878697347
665,0.957953411085132,-0.0025908789026165,0.957956914721705,-0.154961674209579
666,0.952978288795672,-0.00136928214289023,0.952979272518303,-0.0823251008785777
667,0.949211846360564,-0.000435676295508857,0.949211946345528,-0.0262980401154104
668,0.946707902289101,0.000186062809075197,0.946707920573183,0.0112607209904121
669,0.945439328795059,0.000518689998638941,0.945439471077745,0.0314337936987213
670,0.957067577680413,-0.0022761147783363,0.957070284224485,-0.136261563615846
671,0.952068636551877,-0.00105082075360479,0.952069216459605,-0.0632386862106542
672,0.94823422601591,-7.32342155726039e-05,0.94823422884393,-0.00442507910471504
673,0.945733248609821,0.000482374704330763,0.945733371628305,0.0292239194782764
674,0.944495431215799,0.000875163618452241,0.944495836676307,0.0530898993397911
675,0.957066484101688,-0.00224353007208999,0.95706911371016,-0.134311012891852
676,0.952056804861748,-0.0010487305751772,0.95205738247197,-0.0631136831266084
677,0.948278550162858,-0.000113489864021559,0.948278556954085,-0.00685715204017482
678,0.945810152278335,0.000534740439282802,0.945810303443616,0.0323937811066301
679,0.944466171080911,0.000880045896718983,0.944466581090626,0.0533877259035182
680,0.963650830747196,-0.00430804863539594,0.963660460371185,-0.256141905868138
681,0.956206372648212,-0.00269012100978917,0.956210156735484,-0.161191326483436
682,0.949994038376725,-0.00132178429316914,0.949994957915586,-0.0797190398003395
683,0.945014878514467,-0.000222995087920013,0.945014904824533,-0.0135200804170482
684,0.941289186258176,0.000626080452400934,0.941289394470857,0.038109183439083
685,0.938838938493405,0.00122446689200096,0.938839736989542,0.0747271362627843
686,0.937636570327736,0.00153256199727292,0.937637822809124,0.0936495640938635
687,0.955272918438765,-0.00239913216950635,0.955275931099325,-0.143895902571094
688,0.949062766655228,-0.000999157164670665,0.94906329260293,-0.0603200014447234
689,0.944053195253591,7.17578793460244e-05,0.944053197980765,0.00435507622461226
690,0.94032887439953,0.000920208545227461,0.940329324658789,0.0560697969808118
691,0.937910529071754,0.00157892291368703,0.937911858087542,0.0964543321213691
692,0.936739797536034,0.00188166352644814,0.936741687417335,0.115091975173888
693,0.955266192663292,-0.0023980039019601,0.955269202512117,-0.143829243922403
694,0.949053211712069,-0.00103015008478799,0.949053770800259,-0.062191696118378
695,0.944069804393016,6.89358103574839e-05,0.944069806909857,0.00418372769195564
696,0.940308769778424,0.000923638661235864,0.940309223410358,0.0562800026592629
697,0.937875707362901,0.00151881700843295,0.937876937165301,0.0927859925152472
698,0.936715198323731,0.00185268958528986,0.936717030500335,0.113322764226212
699,0.963650891185516,-0.00430822344757086,0.963660521590417,-0.256152283401288
700,0.956152920110024,-0.0027682214802252,0.956156927332061,-0.165880332624991
701,0.949851863081638,-0.00149596291099418,0.949853041109355,-0.0902375344738322
702,0.944779662692355,-0.000493257444346702,0.944779791454065,-0.0299133949667563
703,0.940959370052571,0.000259454689585307,0.940959405822837,0.0157984061634269
704,0.93841237611694,0.000761057912353805,0.938412684728093,0.046467201299228
705,0.937126362180104,0.00101257649213055,0.937126909230585,0.0619087661989663
706,0.955273893876288,-0.00245418171119485,0.955277046374211,-0.147197516598306
707,0.94892166572192,-0.00117324909912288,0.94892239102569,-0.0708406076829889
708,0.943829862656498,-0.000200237752711324,0.943829883897168,-0.0121555572792789
709,0.939987927341947,0.000555907548428879,0.939988091723407,0.033884640094441
710,0.937458180885586,0.00105444209760716,0.937458773897524,0.064445601614712
711,0.936150918508028,0.00130938646692134,0.936151834221535,0.0801390757622178
712,0.95521586681698,-0.00247655593804069,0.955219077253082,-0.148548500888792
713,0.948916667586181,-0.00120509194297275,0.948917432798794,-0.0727636551199174
714,0.943825171878547,-0.000199406554080745,0.943825192943345,-0.0121051590130179
715,0.939993483033267,0.000554999474163274,0.939993646877164,0.0338290896483626
716,0.937448207579642,0.00105612588051047,0.93744880249332,0.064549198022598
717,0.936144796894192,0.00131041822883309,0.936145714057381,0.0802027476079575
718,0.963517791392532,-0.00438329763307258,0.963527761731899,-0.260651878402007
719,0.958669636167987,-0.00328837092177228,0.958675275937467,-0.196531765744784
720,0.95504218172668,-0.00246303371334873,0.955045357777488,-0.147764283507313
721,0.952616629864947,-0.00192615755862172,0.952618577174616,-0.115849907433179
722,0.951394814875972,-0.00165715626236322,0.951396258106875,-0.0997986979966456
723,0.957735105587465,-0.00299698668484888,0.957739794727055,-0.179291880201474
724,0.954109529266134,-0.00217232046393832,0.954112002236971,-0.130451038846217
725,0.951736158056752,-0.00161201769760545,0.951737523245608,-0.0970455114767757
726,0.950482041369599,-0.00133753014451469,0.950482982463656,-0.0806272799815908
727,0.957751444102368,-0.00296740820750829,0.957756041062462,-0.177519358907572
728,0.95415429639018,-0.0021150795366621,0.954156640642031,-0.12700768916695
729,0.951670448509617,-0.00163330517995568,0.951671850089255,-0.0983338315622581
730,0.950453042245305,-0.00136517197089832,0.950454022669095,-0.0822960577486748
